Version 4
SHEET 1 1348 748
WIRE -48 -48 -176 -48
WIRE 464 -48 64 -48
WIRE -176 128 -176 -48
WIRE -48 128 -176 128
WIRE 464 128 176 128
WIRE -176 304 -176 128
WIRE -48 304 -176 304
WIRE 464 304 432 304
WIRE -176 480 -176 304
WIRE -48 480 -176 480
WIRE 464 480 432 480
WIRE -176 624 -176 480
WIRE -176 720 -176 704
FLAG -176 720 0
FLAG -176 -48 u
FLAG 464 128 y_B2
IOPIN 464 128 Out
FLAG 464 304 y_B3
IOPIN 464 304 Out
FLAG 464 480 y_B4
IOPIN 464 480 Out
FLAG 464 -48 y_B1
IOPIN 464 -48 Out
SYMBOL Contraille\\Continuous\\contraille-arbitrary-tf 192 480 R0
SYMATTR InstName U1
SYMBOL Contraille\\Continuous\\contraille-arbitrary-tf 192 304 R0
SYMATTR Value2 a6=0,a5=0,a4=0,a3=1,a2=2,a1=2,a0=1
SYMATTR InstName U2
SYMBOL voltage -176 608 R0
WINDOW 123 24 124 Left 2
WINDOW 39 0 0 Left 0
WINDOW 3 24 99 Left 2
SYMATTR Value2 AC 1 0
SYMATTR Value PULSE(0 1 1 1m 1m 1k)
SYMATTR InstName V1
SYMBOL Contraille\\Continuous\\contraille-2nd-order-lpf 64 128 R0
SYMATTR Value omega=1,zeta={1/sqrt(2)}
SYMATTR InstName U4
SYMBOL Contraille\\Continuous\\contraille-1st-order-lpf-omega_n 0 -48 R0
SYMATTR InstName U5
TEXT -208 -240 Left 4 ;First- to fourth-order Butterworth filters
TEXT -192 -192 Left 2 ;© 2020 @RR_Inyo
TEXT -168 -160 Left 2 !;tran 20
TEXT -32 80 Left 2 ;Second-order
TEXT -32 256 Left 2 ;Third-order
TEXT -32 432 Left 2 ;Fourth-order
TEXT -32 -96 Left 2 ;First-order
TEXT -168 -136 Left 2 !.ac dec 50 0.01 100
