Version 4
SHEET 1 1032 1096
WIRE 80 -64 -32 -64
WIRE 192 -48 176 -48
WIRE 304 -48 192 -48
WIRE 512 -48 304 -48
WIRE 80 -32 64 -32
WIRE 624 -32 576 -32
WIRE 512 -16 448 -16
WIRE 720 -16 704 -16
WIRE 304 0 304 -48
WIRE 320 0 304 0
WIRE 448 0 448 -16
WIRE 448 0 432 0
WIRE 624 0 608 0
WIRE 544 32 544 16
WIRE 544 32 496 32
WIRE 192 80 192 -48
WIRE 208 80 192 80
WIRE 304 80 288 80
WIRE 512 80 304 80
WIRE 624 96 576 96
WIRE 512 112 448 112
WIRE 720 112 704 112
WIRE 304 128 304 80
WIRE 320 128 304 128
WIRE 448 128 448 112
WIRE 448 128 432 128
WIRE 608 128 608 0
WIRE 624 128 608 128
WIRE 496 160 496 32
WIRE 544 160 544 144
WIRE 544 160 496 160
WIRE 80 224 -32 224
WIRE 192 240 176 240
WIRE 304 240 192 240
WIRE 512 240 304 240
WIRE 64 256 64 -32
WIRE 80 256 64 256
WIRE 624 256 576 256
WIRE 512 272 448 272
WIRE 720 272 704 272
WIRE 304 288 304 240
WIRE 320 288 304 288
WIRE 448 288 448 272
WIRE 448 288 432 288
WIRE 608 288 608 128
WIRE 624 288 608 288
WIRE 496 320 496 160
WIRE 544 320 544 304
WIRE 544 320 496 320
WIRE 192 368 192 240
WIRE 208 368 192 368
WIRE 304 368 288 368
WIRE 512 368 304 368
WIRE 624 384 576 384
WIRE 512 400 448 400
WIRE 720 400 704 400
WIRE 304 416 304 368
WIRE 320 416 304 416
WIRE 448 416 448 400
WIRE 448 416 432 416
WIRE 608 416 608 288
WIRE 624 416 608 416
WIRE 496 448 496 320
WIRE 544 448 544 432
WIRE 544 448 496 448
WIRE 80 512 -32 512
WIRE 192 528 176 528
WIRE 304 528 192 528
WIRE 512 528 304 528
WIRE 64 544 64 256
WIRE 80 544 64 544
WIRE 624 544 576 544
WIRE 512 560 448 560
WIRE 720 560 704 560
WIRE 304 576 304 528
WIRE 320 576 304 576
WIRE 448 576 448 560
WIRE 448 576 432 576
WIRE 608 576 608 416
WIRE 624 576 608 576
WIRE 496 608 496 448
WIRE 544 608 544 592
WIRE 544 608 496 608
WIRE 192 656 192 528
WIRE 208 656 192 656
WIRE 304 656 288 656
WIRE 512 656 304 656
WIRE 624 672 576 672
WIRE 512 688 448 688
WIRE 720 688 704 688
WIRE 304 704 304 656
WIRE 320 704 304 704
WIRE 448 704 448 688
WIRE 448 704 432 704
WIRE 608 704 608 576
WIRE 624 704 608 704
WIRE 496 736 496 608
WIRE 544 736 544 720
WIRE 544 736 496 736
WIRE 496 784 496 736
WIRE 496 784 -80 784
WIRE 64 864 64 544
WIRE 64 864 -32 864
WIRE 720 864 64 864
WIRE 688 944 -48 944
WIRE 608 1024 608 704
WIRE 608 1024 -64 1024
FLAG -32 -64 mu
IOPIN -32 -64 In
FLAG 720 -16 S1
IOPIN 720 -16 Out
FLAG 720 112 S2
IOPIN 720 112 Out
FLAG -32 224 mv
IOPIN -32 224 In
FLAG 720 272 S3
IOPIN 720 272 Out
FLAG 720 400 S4
IOPIN 720 400 Out
FLAG -32 512 mw
IOPIN -32 512 In
FLAG 720 560 S5
IOPIN 720 560 Out
FLAG 720 688 S6
IOPIN 720 688 Out
FLAG 720 864 tri
IOPIN 720 864 Out
FLAG 688 944 pulse
IOPIN 688 944 Out
FLAG -64 1024 DEB
IOPIN -64 1024 In
SYMBOL Contraille\\Logic\\contraille-comparator 128 -48 R0
SYMATTR Value h=0
SYMATTR InstName U1
SYMBOL Contraille\\Power\ Toolbox\\contraille-deadtime 368 0 R0
SYMATTR Value Td={Td}
SYMATTR InstName U4
SYMBOL Contraille\\Logic\\contraille-comparator 128 240 R0
SYMATTR Value h=0
SYMATTR InstName U6
SYMBOL Contraille\\Logic\\contraille-comparator 128 528 R0
SYMATTR Value h=0
SYMATTR InstName U11
SYMBOL Contraille\\Sources\\contraille-triangle-bipolar -96 864 R0
SYMATTR Value f={fc},u=1,phi={phi}
SYMATTR InstName U16
SYMBOL Contraille\\Sources\\contraille-pulse-fixed-duty -96 944 R0
SYMATTR Value f={fc*2},phi={phi},d=0.5
SYMATTR InstName U17
SYMBOL Contraille\\Logic\\contraille-and2 656 -16 R0
SYMATTR InstName U18
SYMBOL Contraille\\Logic\\contraille-and2 656 112 R0
SYMATTR InstName U19
SYMBOL Contraille\\Logic\\contraille-and2 656 272 R0
SYMATTR InstName U20
SYMBOL Contraille\\Logic\\contraille-and2 656 400 R0
SYMATTR InstName U21
SYMBOL Contraille\\Logic\\contraille-and2 656 560 R0
SYMATTR InstName U22
SYMBOL Contraille\\Logic\\contraille-and2 656 688 R0
SYMATTR InstName U23
SYMBOL Contraille\\Logic\\contraille-not 240 80 R0
SYMATTR InstName U2
SYMBOL Contraille\\Logic\\contraille-not 240 368 R0
SYMATTR InstName U3
SYMBOL Contraille\\Logic\\contraille-not 240 656 R0
SYMATTR InstName U7
SYMBOL Contraille\\Math\\contraille-mux2 544 -32 R0
SYMATTR InstName U8
SYMBOL Contraille\\Power\ Toolbox\\contraille-deadtime 368 128 R0
SYMATTR Value Td={Td}
SYMATTR InstName U12
SYMBOL Contraille\\Math\\contraille-mux2 544 96 R0
SYMATTR InstName U13
SYMBOL Contraille\\Power\ Toolbox\\contraille-deadtime 368 288 R0
SYMATTR Value Td={Td}
SYMATTR InstName U5
SYMBOL Contraille\\Power\ Toolbox\\contraille-deadtime 368 416 R0
SYMATTR Value Td={Td}
SYMATTR InstName U9
SYMBOL Contraille\\Math\\contraille-mux2 544 256 R0
SYMATTR InstName U10
SYMBOL Contraille\\Math\\contraille-mux2 544 384 R0
SYMATTR InstName U14
SYMBOL Contraille\\Power\ Toolbox\\contraille-deadtime 368 576 R0
SYMATTR Value Td={Td}
SYMATTR InstName U15
SYMBOL Contraille\\Power\ Toolbox\\contraille-deadtime 368 704 R0
SYMATTR Value Td={Td}
SYMATTR InstName U24
SYMBOL Contraille\\Math\\contraille-mux2 544 544 R0
SYMATTR InstName U25
SYMBOL Contraille\\Math\\contraille-mux2 544 672 R0
SYMATTR InstName U26
SYMBOL Contraille\\Sources\\contraille-constant -112 784 R0
SYMATTR Value u={DT}
SYMATTR InstName U27
TEXT -168 -160 Left 4 ;Three-phase PWM subcircuit
TEXT -144 -120 Left 2 ;© 2020 @RR_Inyo
