Version 4
SHEET 1 880 680
WIRE 160 -144 144 -144
WIRE 400 -128 368 -128
WIRE 528 -128 480 -128
WIRE 160 -112 144 -112
WIRE 48 -64 48 -80
WIRE 80 -64 80 -80
WIRE 112 0 112 -80
WIRE 112 0 16 0
WIRE 160 112 144 112
WIRE 368 128 368 -128
WIRE 368 128 320 128
WIRE 400 128 368 128
WIRE 528 128 480 128
WIRE 160 144 144 144
WIRE 48 192 48 176
WIRE 80 192 80 176
WIRE 32 256 16 256
WIRE 112 256 112 176
WIRE 112 256 96 256
WIRE 64 304 64 288
WIRE 64 304 16 304
WIRE 160 368 144 368
WIRE 368 384 368 128
WIRE 400 384 368 384
WIRE 528 384 480 384
WIRE 160 400 144 400
WIRE 48 448 48 432
WIRE 80 448 80 432
WIRE 32 512 16 512
WIRE 112 512 112 432
WIRE 112 512 96 512
WIRE 64 560 64 544
WIRE 64 560 16 560
FLAG 16 0 phi
IOPIN 16 0 In
FLAG 80 -64 f
IOPIN 80 -64 In
FLAG 48 -64 V
IOPIN 48 -64 In
FLAG 80 192 f
IOPIN 80 192 In
FLAG 48 192 V
IOPIN 48 192 In
FLAG 80 448 f
IOPIN 80 448 In
FLAG 48 448 V
IOPIN 48 448 In
FLAG 16 256 phi
IOPIN 16 256 In
FLAG 16 512 phi
IOPIN 16 512 In
FLAG 160 -144 A
IOPIN 160 -144 Out
FLAG 160 112 B
IOPIN 160 112 Out
FLAG 160 368 C
IOPIN 160 368 Out
FLAG 528 -128 Va
IOPIN 528 -128 BiDir
FLAG 528 128 Vb
IOPIN 528 128 BiDir
FLAG 528 384 Vc
IOPIN 528 384 BiDir
FLAG 160 -112 th_A
IOPIN 160 -112 Out
FLAG 160 144 th_B
IOPIN 160 144 Out
FLAG 160 400 th_C
IOPIN 160 400 Out
FLAG 416 -80 0
FLAG 464 -80 A
IOPIN 464 -80 In
FLAG 416 176 0
FLAG 464 176 B
IOPIN 464 176 In
FLAG 416 432 0
FLAG 464 432 C
IOPIN 464 432 In
FLAG 320 128 M
IOPIN 320 128 BiDir
SYMBOL Contraille\\Sources\\contraille-constant -16 304 R0
SYMATTR Value u=-120
SYMATTR InstName U1
SYMBOL Contraille\\Math\\contraille-add2 64 256 R0
SYMATTR InstName U2
SYMBOL Contraille\\Sources\\contraille-constant -16 560 R0
SYMATTR Value u=120
SYMATTR InstName U3
SYMBOL Contraille\\Math\\contraille-add2 64 512 R0
SYMATTR InstName U4
SYMBOL Contraille\\Sources\\contraille-cosine-controllable-theta 80 -128 R0
SYMATTR InstName U5
SYMBOL Contraille\\Sources\\contraille-cosine-controllable-theta 80 128 R0
SYMATTR InstName U6
SYMBOL Contraille\\Sources\\contraille-cosine-controllable-theta 80 384 R0
SYMATTR InstName U7
SYMBOL e 496 -128 M270
SYMATTR InstName E1
SYMATTR Value 1
SYMBOL e 496 128 M270
SYMATTR InstName E2
SYMATTR Value 1
SYMBOL e 496 384 M270
SYMATTR InstName E3
SYMATTR Value 1
TEXT -72 -240 Left 4 ;Three-phase voltage source
TEXT -48 -192 Left 2 ;© 2020 @RR_Inyo
