Version 4
SHEET 1 924 680
WIRE -160 32 -192 32
WIRE 176 32 -160 32
WIRE 288 32 240 32
WIRE 384 32 352 32
WIRE 528 32 480 32
WIRE 640 32 624 32
WIRE 208 80 208 64
WIRE 208 80 160 80
WIRE 320 80 320 64
WIRE 320 80 256 80
WIRE -128 144 -192 144
WIRE 176 144 -128 144
WIRE 288 144 240 144
WIRE 384 144 352 144
WIRE 528 144 480 144
WIRE 640 144 624 144
WIRE 160 192 160 80
WIRE 208 192 208 176
WIRE 208 192 160 192
WIRE 256 192 256 80
WIRE 320 192 320 176
WIRE 320 192 256 192
WIRE -96 256 -192 256
WIRE 176 256 -96 256
WIRE 288 256 240 256
WIRE 384 256 352 256
WIRE 528 256 480 256
WIRE 640 256 624 256
WIRE 160 304 160 192
WIRE 208 304 208 288
WIRE 208 304 160 304
WIRE 256 304 256 192
WIRE 320 304 320 288
WIRE 320 304 256 304
WIRE -160 320 -160 32
WIRE -80 320 -160 320
WIRE -128 352 -128 144
WIRE -80 352 -128 352
WIRE 64 352 48 352
WIRE 160 352 160 304
WIRE 160 352 128 352
WIRE -96 384 -96 256
WIRE -80 384 -96 384
WIRE -112 512 -176 512
WIRE 128 512 -48 512
WIRE 256 512 256 304
WIRE 256 512 224 512
FLAG -192 32 vu
IOPIN -192 32 In
FLAG -192 144 vv
IOPIN -192 144 In
FLAG -192 256 vw
IOPIN -192 256 In
FLAG -176 512 vdc
IOPIN -176 512 In
FLAG 640 32 mu
IOPIN 640 32 Out
FLAG 640 144 mv
IOPIN 640 144 Out
FLAG 640 256 mw
IOPIN 640 256 Out
SYMBOL Contraille\\Math\\contraille-divide 320 32 R0
SYMATTR InstName U1
SYMBOL Contraille\\Math\\contraille-divide 320 144 R0
SYMATTR InstName U2
SYMBOL Contraille\\Math\\contraille-divide 320 256 R0
SYMATTR InstName U3
SYMBOL Contraille\\Continuous\\contraille-limiter 176 512 R0
SYMATTR Value LL={VdLL},LU=1Meg
SYMATTR InstName U4
SYMBOL Contraille\\Continuous\\contraille-transport-delay 576 32 R0
SYMATTR Value T={T}
SYMATTR InstName U5
SYMBOL Contraille\\Continuous\\contraille-transport-delay 576 144 R0
SYMATTR Value T={T}
SYMATTR InstName U6
SYMBOL Contraille\\Continuous\\contraille-transport-delay 576 256 R0
SYMATTR Value T={T}
SYMATTR InstName U7
SYMBOL Contraille\\Continuous\\contraille-limiter 432 32 R0
SYMATTR Value LL=-1,LU=1
SYMATTR InstName U8
SYMBOL Contraille\\Continuous\\contraille-limiter 432 144 R0
SYMATTR Value LL=-1,LU=1
SYMATTR InstName U9
SYMBOL Contraille\\Continuous\\contraille-limiter 432 256 R0
SYMATTR Value LL=-1,LU=1
SYMATTR InstName U10
SYMBOL Contraille\\Math\\contraille-median -16 352 R0
SYMATTR InstName U15
SYMBOL Contraille\\Continuous\\contraille-proportional 96 352 R0
SYMATTR Value K={K3}
SYMATTR InstName U16
SYMBOL Contraille\\Math\\contraille-add2 208 32 R0
SYMATTR InstName U12
SYMBOL Contraille\\Math\\contraille-add2 208 144 R0
SYMATTR InstName U13
SYMBOL Contraille\\Math\\contraille-add2 208 256 R0
SYMATTR InstName U14
SYMBOL Contraille\\Continuous\\contraille-proportional -80 512 R0
SYMATTR Value K=1/2
SYMATTR InstName U11
TEXT -256 -80 Left 4 ;Voltage reference to modulation index
TEXT -240 -32 Left 2 ;© 2020 @RR_Inyo
