Version 4
SHEET 1 1012 680
WIRE 176 16 160 16
WIRE 288 16 272 16
WIRE 576 16 560 16
WIRE 784 16 768 16
WIRE 176 176 160 176
WIRE 288 176 272 176
WIRE 576 176 560 176
WIRE 784 176 768 176
WIRE 576 336 560 336
WIRE 784 336 768 336
WIRE 208 384 176 384
WIRE 176 416 176 384
WIRE 576 496 560 496
WIRE 784 496 768 496
WIRE 176 512 176 496
FLAG 176 512 0
FLAG 208 384 u
IOPIN 208 384 Out
FLAG 160 16 u
IOPIN 160 16 In
FLAG 160 176 u
IOPIN 160 176 In
FLAG 560 16 u
IOPIN 560 16 In
FLAG 560 176 u
IOPIN 560 176 In
FLAG 560 336 u
IOPIN 560 336 In
FLAG 560 496 u
IOPIN 560 496 In
FLAG 288 16 y1_LPF
IOPIN 288 16 Out
FLAG 288 176 y1_HPF
IOPIN 288 176 Out
FLAG 784 16 y2_LPF
IOPIN 784 16 Out
FLAG 784 176 y2_HPF
IOPIN 784 176 Out
FLAG 784 336 y2_BPF
IOPIN 784 336 Out
FLAG 784 496 y2_BEF
IOPIN 784 496 Out
SYMBOL voltage 176 400 R0
WINDOW 3 24 152 Left 2
WINDOW 123 24 124 Left 2
WINDOW 39 0 0 Left 0
SYMATTR Value PULSE(0 1 1 1u 1u 1k)
SYMATTR Value2 AC 1 0
SYMATTR InstName V1
SYMBOL Contraille\\Continuous\\contraille-2nd-order-lpf 672 16 R0
SYMATTR Value omega_n={omega_n},zeta={zeta}
SYMATTR InstName U3
SYMBOL Contraille\\Continuous\\contraille-2nd-order-hpf 672 176 R0
SYMATTR Value omega_n={omega_n},zeta={zeta}
SYMATTR InstName U4
SYMBOL Contraille\\Continuous\\contraille-2nd-order-bpf 672 336 R0
SYMATTR Value omega_n={omega_n},zeta={zeta}
SYMATTR InstName U5
SYMBOL Contraille\\Continuous\\contraille-2nd-order-bef 672 496 R0
SYMATTR Value omega_n={omega_n},zeta={zeta}
SYMATTR InstName U6
SYMBOL Contraille\\Continuous\\contraille-1st-order-lpf-omega_n 224 16 R0
SYMATTR Value omega_n={omega_n}
SYMATTR InstName U7
SYMBOL Contraille\\Continuous\\contraille-1st-order-hpf-omega_n 224 176 R0
SYMATTR Value omega_n={omega_n}
SYMATTR InstName U8
TEXT 112 -136 Left 2 !.param omega_n=1 zeta=0.707
TEXT 112 -168 Left 2 !;ac dec 50 0.01 100
TEXT 120 -80 Left 3 ;First order
TEXT 512 -80 Left 3 ;Second order
TEXT 192 -32 Left 2 ;Low-pass filter
TEXT 192 128 Left 2 ;High-pass filter
TEXT 576 -32 Left 2 ;Low-pass filter
TEXT 576 128 Left 2 ;High-pass filter
TEXT 576 288 Left 2 ;Band-pass filter
TEXT 576 448 Left 2 ;Band-elimination filter (notch filter)
TEXT 152 344 Left 2 ;Input signal
TEXT 96 -272 Left 4 ;First- and second-order filters, continuous
TEXT 112 -232 Left 2 ;© 2020 @RR_Inyo
TEXT 112 -192 Left 2 !.tran 0 15 0
