Version 4
SHEET 1 880 724
WIRE -96 16 -224 16
WIRE 16 32 0 32
WIRE 128 32 16 32
WIRE 336 32 128 32
WIRE -96 48 -112 48
WIRE 448 48 400 48
WIRE 336 64 272 64
WIRE 544 64 528 64
WIRE 128 80 128 32
WIRE 144 80 128 80
WIRE 272 80 272 64
WIRE 272 80 256 80
WIRE 448 80 432 80
WIRE -112 96 -112 48
WIRE -112 96 -208 96
WIRE 368 112 368 96
WIRE 368 112 320 112
WIRE 16 160 16 32
WIRE 32 160 16 160
WIRE 128 160 112 160
WIRE 336 160 128 160
WIRE 448 176 400 176
WIRE 336 192 272 192
WIRE 544 192 528 192
WIRE 128 208 128 160
WIRE 144 208 128 208
WIRE 272 208 272 192
WIRE 272 208 256 208
WIRE 432 208 432 80
WIRE 448 208 432 208
WIRE 320 240 320 112
WIRE 368 240 368 224
WIRE 368 240 320 240
WIRE 320 304 320 240
WIRE 320 304 -208 304
WIRE 432 384 432 208
WIRE 432 384 -224 384
FLAG -224 16 m
IOPIN -224 16 In
FLAG 544 64 SH
IOPIN 544 64 Out
FLAG 544 192 SL
IOPIN 544 192 Out
FLAG -224 384 DEB
IOPIN -224 384 In
SYMBOL Contraille\\Logic\\contraille-comparator -48 32 R0
SYMATTR Value h=0
SYMATTR InstName U1
SYMBOL Contraille\\Power\ Toolbox\\contraille-deadtime 192 80 R0
SYMATTR Value Td={Td}
SYMATTR InstName U2
SYMBOL Contraille\\Logic\\contraille-and2 480 64 R0
SYMATTR InstName U3
SYMBOL Contraille\\Logic\\contraille-and2 480 192 R0
SYMATTR InstName U4
SYMBOL Contraille\\Logic\\contraille-not 64 160 R0
SYMATTR InstName U5
SYMBOL Contraille\\Math\\contraille-mux2 368 48 R0
SYMATTR InstName U6
SYMBOL Contraille\\Power\ Toolbox\\contraille-deadtime 192 208 R0
SYMATTR Value Td={Td}
SYMATTR InstName U7
SYMBOL Contraille\\Math\\contraille-mux2 368 176 R0
SYMATTR InstName U8
SYMBOL Contraille\\Sources\\contraille-constant -240 304 R0
SYMATTR Value u={DT}
SYMATTR InstName U12
SYMBOL Contraille\\Sources\\contraille-triangle-unipolar -272 96 R0
SYMATTR Value f={fc},u=1,phi={phi}
SYMATTR InstName U10
TEXT -352 -48 Left 2 !.param fc=1k phi=0 Td=2u DT=1
TEXT -384 -160 Left 4 ;PWM test, single-leg
TEXT -368 -120 Left 2 ;© 2020 @RR_Inyo
TEXT -352 -72 Left 2 !.tran 60m
