Version 4
SHEET 1 880 680
WIRE 96 64 -32 64
WIRE 192 64 176 64
WIRE 272 64 256 64
WIRE 352 64 272 64
WIRE 480 64 432 64
WIRE 608 64 560 64
WIRE -32 112 -32 64
WIRE 224 112 224 96
WIRE 240 112 224 112
WIRE -32 240 -32 192
WIRE 608 240 608 64
WIRE 192 352 160 352
WIRE 320 352 256 352
WIRE 384 352 320 352
WIRE 512 352 480 352
WIRE 432 416 432 400
WIRE 432 416 416 416
WIRE 224 432 224 384
WIRE 224 432 160 432
FLAG -32 240 0
FLAG 608 240 0
FLAG 160 112 0
FLAG -32 64 SRC
FLAG 112 112 BRK
IOPIN 112 112 In
FLAG 512 352 BRK
IOPIN 512 352 Out
FLAG 272 64 M
FLAG 320 352 CMD
FLAG 240 112 IBRK
IOPIN 240 112 Out
FLAG 416 416 IBRK
IOPIN 416 416 In
SYMBOL voltage -32 96 R0
WINDOW 123 0 0 Left 0
WINDOW 39 0 0 Left 0
SYMATTR InstName V1
SYMATTR Value SINE(0 {sqrt(2)*440} 50)
SYMBOL sw 192 64 M270
SYMATTR InstName S1
SYMBOL ind 336 80 R270
WINDOW 0 32 56 VTop 2
WINDOW 3 5 56 VBottom 2
SYMATTR InstName L1
SYMATTR Value {L}
SYMBOL res 576 48 R90
WINDOW 0 0 56 VBottom 2
WINDOW 3 32 56 VTop 2
SYMATTR InstName R1
SYMATTR Value {R}
SYMBOL Contraille\\Sources\\contraille-unit-step 96 352 R0
SYMATTR Value T=20m,u=1
SYMATTR InstName U1
SYMBOL Contraille\\Sources\\contraille-unit-step 96 432 R0
SYMATTR Value T=120m,u=1
SYMATTR InstName U2
SYMBOL Contraille\\Math\\contraille-subtract 224 352 R0
SYMATTR InstName U5
SYMBOL Contraille\\Power\ Toolbox\\contraille-brk-control 432 352 R0
SYMATTR InstName U6
SYMBOL Contraille\\Power\ Toolbox\\contraille-current-transducer 224 64 R0
SYMATTR InstName U7
TEXT -56 -104 Left 2 !.param L=5m R=0.6
TEXT -56 -128 Left 2 !.tran 0.2
TEXT -80 -208 Left 4 ;Circuit breaker controller
TEXT -16 352 Left 2 ;Close
TEXT -16 432 Left 2 ;Open
TEXT -56 -80 Left 2 !.model SW SW(Vt=0.5 Ron=1u)
TEXT -56 -56 Left 2 !.save V(SRC) V(M) I(L1) V(CMD) V(BRK)
TEXT -56 -168 Left 2 ;© 2020 @RR_Inyo
TEXT 280 264 Left 1 ;Circuit breaker controller \nopens the voltage-controlled switch \nwhen the current through it crosses zero.
