Version 4
SHEET 1 60900 680
WIRE 16 -208 -96 -208
WIRE 144 -208 80 -208
WIRE 224 -208 144 -208
WIRE 352 -208 288 -208
WIRE 448 -208 352 -208
WIRE 480 -208 448 -208
WIRE 640 -208 576 -208
WIRE 48 -112 48 -176
WIRE 64 -112 48 -112
WIRE 176 -112 128 -112
WIRE 208 -112 176 -112
WIRE 288 -112 272 -112
WIRE 368 -112 352 -112
WIRE 448 -112 448 -208
WIRE 448 -112 432 -112
WIRE 16 -64 -96 -64
WIRE 96 -64 96 -80
WIRE 96 -64 16 -64
WIRE -128 208 -160 208
WIRE 16 208 -64 208
WIRE 64 208 16 208
WIRE 272 208 128 208
WIRE 640 208 464 208
WIRE -96 272 -96 240
WIRE -96 272 -160 272
WIRE 304 304 304 256
WIRE 304 304 288 304
WIRE 336 304 336 256
WIRE 336 304 304 304
WIRE 368 304 368 256
WIRE 368 304 336 304
WIRE 96 352 96 240
WIRE 96 352 -144 352
FLAG -96 -208 q_in
IOPIN -96 -208 In
FLAG 640 -208 h_sense
IOPIN 640 -208 Out
FLAG 176 -112 q_out
FLAG 352 -208 h
FLAG -144 352 h_sense
IOPIN -144 352 In
FLAG 640 208 q_in
IOPIN 640 208 Out
FLAG 16 208 h_ref
FLAG 16 -64 q_dist
FLAG 144 -208 q_net
SYMBOL Contraille\\Math\\contraille-subtract 48 -208 R0
SYMATTR InstName U2
SYMBOL Contraille\\Continuous\\contraille-integral 256 -208 R0
SYMATTR InstName U3
SYMATTR Value T={A}
SYMBOL Contraille\\Continuous\\contraille-proportional 400 -112 M0
SYMATTR Value K={2*g}
SYMATTR InstName U4
SYMBOL Contraille\\Math\\contraille-sqrt 320 -112 M0
SYMATTR InstName U5
SYMBOL Contraille\\Continuous\\contraille-proportional 240 -112 M0
SYMATTR Value K={S}
SYMATTR InstName U6
SYMBOL Contraille\\Sources\\contraille-unit-step -224 208 R0
SYMATTR Value T=10,u=0.25
SYMATTR InstName U9
SYMBOL Contraille\\Math\\contraille-subtract 96 208 R0
SYMATTR InstName U10
SYMBOL Contraille\\Sources\\contraille-zero 256 304 R0
SYMATTR InstName U11
SYMBOL Contraille\\Math\\contraille-add2 96 -112 M0
SYMATTR InstName U12
SYMBOL Contraille\\Sources\\contraille-unit-step -160 -64 R0
SYMATTR Value T=210,u=0.002
SYMATTR InstName U13
SYMBOL Contraille\\Sources\\contraille-unit-step -224 272 R0
SYMATTR Value T=90,u=0.75
SYMATTR InstName U14
SYMBOL Contraille\\Math\\contraille-add2 -96 208 R0
SYMATTR InstName U15
SYMBOL Contraille\\Continuous\\contraille-transport-delay 528 -208 R0
SYMATTR Value T={T}
SYMATTR InstName U7
SYMBOL Contraille\\Continuous\\contraille-PI-controller 352 208 R0
WINDOW 123 1 -88 Center 2
SYMATTR Value2 LLI=0,LUI=0.02,LLO=0,LUO=0.02
SYMATTR Value KP={KP},KI={KI}
SYMATTR InstName U16
TEXT 560 -600 Left 2 ;q_in
TEXT 768 -336 Left 2 ;q_out
TEXT 776 -456 Left 2 ;h
TEXT 616 -360 Left 2 ;A
TEXT 680 -376 Left 2 ;S
TEXT -296 -696 Left 4 ;Single tank system, continuous controller
TEXT 656 -632 Left 2 ;Sensor, Delay = T
TEXT 456 -648 Left 2 ;Inlet, q_max
TEXT 672 -408 Left 2 ;Outlet
TEXT 496 -320 Left 2 ;Tank
TEXT 744 -608 Left 2 ;h_sense
TEXT -224 -576 Left 2 !.param A=1 S={pi*0.02**2} g=9.807 q_max=0.02 T=2\n;step param T list 0.1 2 4\n;step param KP 0.7 0.8 0.02\n;param KI=0\n.param KP0=0.78 T0=8.56\n;param KP={0.5*KP0} KI=0\n.param KP={0.45*KP0} KI={KP/(0.83*T0)}
TEXT -48 -280 Left 2 ;Plant model: dh/dt=-S/A*sqrt(2*g*h)+q_in/A
TEXT -272 -648 Left 2 ;© 2020 @RR_Inyo
TEXT -224 -608 Left 2 !.tran 300
TEXT -224 -376 Left 2 !.save V(q_in) V(q_out) V(q_dist)\n+ V(h_ref) V(h) V(h_sense)
TEXT -48 40 Left 2 ;Controller model (incl. actuator)
TEXT -208 -104 Left 2 ;Disturbance
TEXT -256 168 Left 2 ;Reference
TEXT 712 -304 Left 2 ;q_dist
LINE Normal 592 -384 496 -336
LINE Normal 738 -376 738 -376 2
LINE Normal 656 -336 496 -336
LINE Normal 496 -336 496 -528
LINE Normal 592 -384 592 -576
LINE Normal 752 -384 752 -576
LINE Normal 656 -336 656 -528
LINE Normal 592 -576 496 -528
LINE Normal 752 -576 592 -576
LINE Normal 656 -528 496 -528
LINE Normal 752 -576 656 -528
LINE Normal 608 -672 608 -624
LINE Normal 640 -672 640 -624
LINE Normal 616 -496 616 -608 2
LINE Normal 632 -496 632 -608 2
LINE Normal 656 -464 496 -464
LINE Normal 752 -512 656 -464
LINE Normal 752 -512 592 -512
LINE Normal 592 -512 496 -464
LINE Normal 722 -392 706 -392
LINE Normal 722 -360 706 -360
LINE Normal 768 -512 768 -384
LINE Normal 775 -496 768 -512
LINE Normal 761 -496 768 -512
LINE Normal 696 -384 592 -384
LINE Normal 730 -384 752 -384
LINE Normal 702 -359 656 -336
LINE Normal 730 -373 752 -384
LINE Normal 688 -614 672 -614
LINE Normal 688 -614 688 -614
LINE Normal 696 -618 688 -614
LINE Normal 680 -618 696 -618
LINE Normal 672 -614 680 -618
LINE Normal 688 -598 672 -598
LINE Normal 688 -598 688 -598
LINE Normal 696 -602 688 -598
LINE Normal 672 -598 672 -614
LINE Normal 688 -598 688 -614
LINE Normal 696 -602 696 -618
LINE Normal 682 -507 682 -597
LINE Normal 736 -608 692 -608
LINE Normal 720 -616 736 -608
LINE Normal 736 -608 720 -600
RECTANGLE Normal 592 -32 -48 -256 2
RECTANGLE Normal 608 384 -48 64 2
CIRCLE Normal 730 -360 714 -392
CIRCLE Normal 676 -344 668 -361
ARC Normal 640 -615 608 -631 606 -625 647 -625
ARC Normal 697 -360 713 -392 707 -394 707 -353
ARC Normal 696 -379 760 -267 783 -335 726 -371 2
ARC Normal 686 -371 750 -259 773 -327 716 -363 2
ARC Normal 713 -392 697 -360 703 -358 703 -399 2
ARC Normal 608 -631 640 -615 642 -621 601 -621 2
ARC Normal 642 -352 706 -240 729 -308 672 -344 2
