Version 4
SHEET 1 1204 680
WIRE 16 -208 -96 -208
WIRE 144 -208 80 -208
WIRE 224 -208 144 -208
WIRE 352 -208 288 -208
WIRE 448 -208 352 -208
WIRE 480 -208 448 -208
WIRE 640 -208 576 -208
WIRE 48 -112 48 -176
WIRE 64 -112 48 -112
WIRE 176 -112 128 -112
WIRE 208 -112 176 -112
WIRE 288 -112 272 -112
WIRE 368 -112 352 -112
WIRE 448 -112 448 -208
WIRE 448 -112 432 -112
WIRE 16 -64 -96 -64
WIRE 96 -64 96 -80
WIRE 96 -64 16 -64
WIRE -176 192 -208 192
WIRE -80 192 -112 192
WIRE -16 192 -80 192
WIRE 96 192 80 192
WIRE 304 192 160 192
WIRE 672 192 496 192
WIRE -144 256 -144 224
WIRE -144 256 -208 256
WIRE 336 288 336 240
WIRE 336 288 320 288
WIRE 368 288 368 240
WIRE 368 288 336 288
WIRE 400 288 400 240
WIRE 400 288 368 288
WIRE -16 336 -192 336
WIRE 128 336 128 224
WIRE 128 336 80 336
WIRE 192 416 176 416
FLAG -96 -208 q_in
IOPIN -96 -208 In
FLAG 640 -208 h_sense
IOPIN 640 -208 Out
FLAG 176 -112 q_out
FLAG 352 -208 h
FLAG -192 336 h_sense
IOPIN -192 336 In
FLAG 672 192 q_in
IOPIN 672 192 Out
FLAG -80 192 h_ref
FLAG 16 -64 q_dist
FLAG 144 -208 q_net
FLAG 192 416 GCLK
IOPIN 192 416 Out
SYMBOL Contraille\\Math\\contraille-subtract 48 -208 R0
SYMATTR InstName U2
SYMBOL Contraille\\Continuous\\contraille-integral 256 -208 R0
SYMATTR InstName U3
SYMATTR Value T={A}
SYMBOL Contraille\\Continuous\\contraille-proportional 400 -112 M0
SYMATTR Value K={2*g}
SYMATTR InstName U4
SYMBOL Contraille\\Math\\contraille-sqrt 320 -112 M0
SYMATTR InstName U5
SYMBOL Contraille\\Continuous\\contraille-proportional 240 -112 M0
SYMATTR Value K={S}
SYMATTR InstName U6
SYMBOL Contraille\\Sources\\contraille-unit-step -272 192 R0
SYMATTR Value T=10,u=0.25
SYMATTR InstName U9
SYMBOL Contraille\\Math\\contraille-subtract 128 192 R0
SYMATTR InstName U10
SYMBOL Contraille\\Sources\\contraille-zero 288 288 R0
SYMATTR InstName U11
SYMBOL Contraille\\Math\\contraille-add2 96 -112 M0
SYMATTR InstName U12
SYMBOL Contraille\\Sources\\contraille-unit-step -160 -64 R0
SYMATTR Value T=210,u=0.001
SYMATTR InstName U13
SYMBOL Contraille\\Sources\\contraille-unit-step -272 256 R0
SYMATTR Value T=90,u=0.75
SYMATTR InstName U14
SYMBOL Contraille\\Math\\contraille-add2 -144 192 R0
SYMATTR InstName U15
SYMBOL Contraille\\Continuous\\contraille-transport-delay 528 -208 R0
SYMATTR Value T={T}
SYMATTR InstName U7
SYMBOL Contraille\\Discrete\\contraille-sample-and-hold-gclock 32 192 R0
SYMATTR InstName U1
SYMBOL Contraille\\Discrete\\contraille-sample-and-hold-gclock 32 336 R0
SYMATTR InstName U17
SYMBOL Contraille\\Sources\\contraille-pulse-fixed-duty 128 416 R0
SYMATTR Value f={1/Ts},phi=0,d=0.5
SYMATTR InstName U18
SYMBOL Contraille\\Discrete\\contraille-PI-controller-discrete-gclock 384 192 R0
SYMATTR Value KP={KP},KI={KI},Ts={Ts}
SYMATTR Value2 LLI=0,LUI=0.02,LLO=0,LUO=0.02
SYMATTR InstName U8
TEXT 560 -616 Left 2 ;q_in
TEXT 768 -352 Left 2 ;q_out
TEXT 776 -472 Left 2 ;h
TEXT 608 -376 Left 2 ;A
TEXT 680 -392 Left 2 ;S
TEXT -296 -712 Left 4 ;Single tank system, discrete-time controller
TEXT 656 -648 Left 2 ;Sensor, Delay = T
TEXT 448 -664 Left 2 ;Inlet, q_max
TEXT 672 -424 Left 2 ;Outlet
TEXT 496 -336 Left 2 ;Tank
TEXT 744 -624 Left 2 ;h_sense
TEXT -240 -592 Left 2 !.param A=1 S={pi*0.02**2} g=9.807 q_max=0.02 T=2\n;param KI=0\n.param KP0=0.78 T0=8.56\n;param KP={0.5*KP0} KI=0\n.param KP={0.45*KP0} KI={KP/(0.83*T0)}\n.param Ts=1
TEXT -48 -280 Left 2 ;Plant model: dh/dt=-S/A*sqrt(2*g*h)+q_in/A
TEXT -272 -664 Left 2 ;© 2020 @RR_Inyo
TEXT -240 -616 Left 2 !.tran 300
TEXT -240 -424 Left 2 !.save V(q_in) V(q_out) V(q_dist)\n+ V(h_ref) V(h) V(h_sense)
TEXT -16 24 Left 2 ;Controller model, discrete, (incl. actuator)
TEXT -208 -104 Left 2 ;Disturbance
TEXT -304 152 Left 2 ;Reference
TEXT 712 -320 Left 2 ;q_dist
TEXT 192 384 Left 2 !.global GCLK
TEXT 616 -160 Left 2 !;nodealias h=h_sense
LINE Normal 592 -400 496 -352
LINE Normal 738 -392 738 -392 2
LINE Normal 656 -352 496 -352
LINE Normal 496 -352 496 -544
LINE Normal 592 -400 592 -592
LINE Normal 752 -400 752 -592
LINE Normal 656 -352 656 -544
LINE Normal 592 -592 496 -544
LINE Normal 752 -592 592 -592
LINE Normal 656 -544 496 -544
LINE Normal 752 -592 656 -544
LINE Normal 608 -688 608 -640
LINE Normal 640 -688 640 -640
LINE Normal 616 -512 616 -624 2
LINE Normal 632 -512 632 -624 2
LINE Normal 656 -480 496 -480
LINE Normal 752 -528 656 -480
LINE Normal 752 -528 592 -528
LINE Normal 592 -528 496 -480
LINE Normal 722 -408 706 -408
LINE Normal 722 -376 706 -376
LINE Normal 768 -528 768 -400
LINE Normal 775 -512 768 -528
LINE Normal 761 -512 768 -528
LINE Normal 696 -400 592 -400
LINE Normal 730 -400 752 -400
LINE Normal 702 -375 656 -352
LINE Normal 730 -389 752 -400
LINE Normal 688 -630 672 -630
LINE Normal 688 -630 688 -630
LINE Normal 696 -634 688 -630
LINE Normal 680 -634 696 -634
LINE Normal 672 -630 680 -634
LINE Normal 688 -614 672 -614
LINE Normal 688 -614 688 -614
LINE Normal 696 -618 688 -614
LINE Normal 672 -614 672 -630
LINE Normal 688 -614 688 -630
LINE Normal 696 -618 696 -634
LINE Normal 682 -523 682 -613
LINE Normal 736 -624 692 -624
LINE Normal 720 -632 736 -624
LINE Normal 736 -624 720 -616
RECTANGLE Normal 592 -32 -48 -256 2
RECTANGLE Normal 592 496 -48 48 2
CIRCLE Normal 730 -376 714 -408
CIRCLE Normal 676 -360 668 -377
ARC Normal 640 -631 608 -647 606 -641 647 -641
ARC Normal 697 -376 713 -408 707 -410 707 -369
ARC Normal 696 -395 760 -283 783 -351 726 -387 2
ARC Normal 686 -387 750 -275 773 -343 716 -379 2
ARC Normal 713 -408 697 -376 703 -374 703 -415 2
ARC Normal 608 -647 640 -631 642 -637 601 -637 2
ARC Normal 642 -368 706 -256 729 -324 672 -360 2
